*Heading
** Job name: plastic_beam Model name: Model-1
** Generated by: Abaqus/CAE 2018
*Preprint, echo=NO, model=NO, history=NO, contact=NO
** ----------------------------------------------------------------
** 
** PART INSTANCE: Part-1-1
** 
*Node
      1,           1.,           1.,          20.
      2,           1.,           0.,          20.
      3,           1.,          -1.,          20.
      4,           1.,           1.,          19.
      5,           1.,           0.,          19.
      6,           1.,          -1.,          19.
      7,           1.,           1.,          18.
      8,           1.,           0.,          18.
      9,           1.,          -1.,          18.
     10,           1.,           1.,          17.
     11,           1.,           0.,          17.
     12,           1.,          -1.,          17.
     13,           1.,           1.,          16.
     14,           1.,           0.,          16.
     15,           1.,          -1.,          16.
     16,           1.,           1.,          15.
     17,           1.,           0.,          15.
     18,           1.,          -1.,          15.
     19,           1.,           1.,          14.
     20,           1.,           0.,          14.
** ... 169 like lines cut
*Element, type=C3D8
 1,  64,  65,  68,  67,   1,   2,   5,   4
 2,  65,  66,  69,  68,   2,   3,   6,   5
 3,  67,  68,  71,  70,   4,   5,   8,   7
 4,  68,  69,  72,  71,   5,   6,   9,   8
 5,  70,  71,  74,  73,   7,   8,  11,  10
 6,  71,  72,  75,  74,   8,   9,  12,  11
 7,  73,  74,  77,  76,  10,  11,  14,  13
 8,  74,  75,  78,  77,  11,  12,  15,  14
 9,  76,  77,  80,  79,  13,  14,  17,  16
10,  77,  78,  81,  80,  14,  15,  18,  17
11,  79,  80,  83,  82,  16,  17,  20,  19
12,  80,  81,  84,  83,  17,  18,  21,  20
13,  82,  83,  86,  85,  19,  20,  23,  22
14,  83,  84,  87,  86,  20,  21,  24,  23
15,  85,  86,  89,  88,  22,  23,  26,  25
16,  86,  87,  90,  89,  23,  24,  27,  26
17,  88,  89,  92,  91,  25,  26,  29,  28
18,  89,  90,  93,  92,  26,  27,  30,  29
19,  91,  92,  95,  94,  28,  29,  32,  31
20,  92,  93,  96,  95,  29,  30,  33,  32
** ... 60 like lines cut
*Nset, nset=Part-1-1_Set-1, generate
   1,  189,    1
*Elset, elset=Part-1-1_Set-1, generate
  1,  80,   1
** Section: Section-1
*Solid Section, elset=Part-1-1_Set-1, material=Material-1
,
*System
*Nset, nset=Set-1, generate
   3,  129,   63
*Elset, elset=Set-1
  2, 42
*Nset, nset=Set-2, generate
  63,  189,   63
*Elset, elset=Set-2
 40, 80
*Elset, elset=_Surf-1_S6, generate
  1,  79,   2
*Surface, type=ELEMENT, name=Surf-1
_Surf-1_S6, S6
** 
** MATERIALS
** 
*Material, name=Material-1
*Elastic
200000., 0.3
*Plastic
100.,0.
** ----------------------------------------------------------------
** 
** STEP: Step-1
** 
*Step, name=Step-1, nlgeom=NO
*Static
1., 1., 1e-05, 1.
** 
** BOUNDARY CONDITIONS
** 
** Name: BC-1 Type: Displacement/Rotation
*Boundary
Set-1, 1, 1
Set-1, 2, 2
Set-1, 3, 3
** Name: BC-2 Type: Displacement/Rotation
*Boundary
Set-2, 1, 1
Set-2, 2, 2
** 
** LOADS
** 
** Name: Load-1   Type: Pressure
*Dsload
Surf-1, P, 100.
** 
** OUTPUT REQUESTS
** 
*Restart, write, frequency=0
** 
** FIELD OUTPUT: F-Output-1
** 
*Output, field, variable=PRESELECT
** 
** HISTORY OUTPUT: H-Output-1
** 
*Output, history, variable=PRESELECT
*End Step
